*SPEF "IEEE 1481-1998"
*DESIGN "single_port_ram"
*DATE "Fri Jul 12 15:38:28 2024"
*VENDOR "Cadence Design Systems, Inc."
*PROGRAM "Innovus"
*VERSION "21.18-s099_1"
*DESIGN_FLOW "COUPLING C" "PIN_CAP NONE" "NAME_SCOPE LOCAL"
*DIVIDER /
*DELIMITER :
*BUS_DELIMITER []
*T_UNIT 1 NS
*C_UNIT 1 PF
*R_UNIT 1 OHM
*L_UNIT 1 HENRY

// MMMC spef file for corner 'rc_worst'

*NAME_MAP

*1 clk_pad
*2 addr_pad[3]
*3 addr_pad[2]
*4 addr_pad[1]
*5 addr_pad[0]
*6 data_pad[7]
*7 data_pad[6]
*8 data_pad[5]
*9 data_pad[4]
*10 data_pad[3]
*11 data_pad[2]
*12 data_pad[1]
*13 data_pad[0]
*14 cs_pad
*15 we_pad
*16 FE_PHN11_cs
*17 FE_PHN10_we
*18 FE_OFN9_we
*19 FE_OFN8_we
*20 FE_OFN7_dataOut_0
*21 FE_OFN6_dataOut_1
*22 FE_OFN5_dataOut_2
*23 FE_OFN4_dataOut_3
*24 FE_OFN3_dataOut_4
*25 FE_OFN2_dataOut_5
*26 FE_OFN1_dataOut_6
*27 FE_OFN0_dataOut_7
*28 dataOut[7]
*29 dataOut[6]
*30 dataOut[5]
*31 dataOut[4]
*32 dataOut[3]
*33 dataOut[2]
*34 dataOut[1]
*35 dataOut[0]
*36 data[7]
*37 data[6]
*38 data[5]
*39 data[4]
*40 data[3]
*41 data[2]
*42 data[1]
*43 data[0]
*44 addr[3]
*45 addr[2]
*46 addr[1]
*47 addr[0]
*48 clk
*49 clock
*50 cs
*51 we
*52 ram_1/FE_PHN147_n_198
*53 ram_1/FE_PHN146_n_204
*54 ram_1/FE_PHN145_n_197
*55 ram_1/FE_PHN144_n_211
*56 ram_1/FE_PHN143_n_196
*57 ram_1/FE_PHN142_n_201
*58 ram_1/FE_PHN141_n_199
*59 ram_1/FE_PHN140_n_203
*60 ram_1/FE_PHN139_n_248
*61 ram_1/FE_PHN138_n_247
*62 ram_1/FE_PHN137_n_143
*63 ram_1/FE_PHN136_n_249
*64 ram_1/FE_PHN135_n_140
*65 ram_1/FE_PHN134_n_186
*66 ram_1/FE_PHN133_n_180
*67 ram_1/FE_PHN132_n_183
*68 ram_1/FE_PHN131_n_144
*69 ram_1/FE_PHN130_n_244
*70 ram_1/FE_PHN129_n_187
*71 ram_1/FE_PHN128_n_250
*72 ram_1/FE_PHN127_n_184
*73 ram_1/FE_PHN126_n_151
*74 ram_1/FE_PHN125_n_142
*75 ram_1/FE_PHN124_n_138
*76 ram_1/FE_PHN123_n_251
*77 ram_1/FE_PHN122_n_185
*78 ram_1/FE_PHN121_n_245
*79 ram_1/FE_PHN120_n_141
*80 ram_1/FE_PHN119_n_139
*81 ram_1/FE_PHN118_n_137
*82 ram_1/FE_PHN117_n_148
*83 ram_1/FE_PHN116_n_246
*84 ram_1/FE_PHN115_n_182
*85 ram_1/FE_PHN114_n_152
*86 ram_1/FE_PHN113_n_181
*87 ram_1/FE_PHN112_n_147
*88 ram_1/FE_PHN111_n_146
*89 ram_1/FE_PHN110_n_145
*90 ram_1/FE_PHN109_n_150
*91 ram_1/FE_PHN108_n_149
*92 ram_1/FE_PHN107_n_220
*93 ram_1/FE_PHN106_n_225
*94 ram_1/FE_PHN105_n_221
*95 ram_1/FE_PHN104_n_224
*96 ram_1/FE_PHN103_n_222
*97 ram_1/FE_PHN102_n_259
*98 ram_1/FE_PHN101_n_226
*99 ram_1/FE_PHN100_n_223
*100 ram_1/FE_PHN99_n_239
*101 ram_1/FE_PHN98_n_240
*102 ram_1/FE_PHN97_n_237
*103 ram_1/FE_PHN96_n_243
*104 ram_1/FE_PHN95_n_242
*105 ram_1/FE_PHN94_n_241
*106 ram_1/FE_PHN93_n_236
*107 ram_1/FE_PHN92_n_167
*108 ram_1/FE_PHN91_n_238
*109 ram_1/FE_PHN90_n_165
*110 ram_1/FE_PHN89_n_168
*111 ram_1/FE_PHN88_n_162
*112 ram_1/FE_PHN87_n_195
*113 ram_1/FE_PHN86_n_166
*114 ram_1/FE_PHN85_n_164
*115 ram_1/FE_PHN84_n_161
*116 ram_1/FE_PHN83_n_218
*117 ram_1/FE_PHN82_n_219
*118 ram_1/FE_PHN81_n_217
*119 ram_1/FE_PHN80_n_216
*120 ram_1/FE_PHN79_n_212
*121 ram_1/FE_PHN78_n_215
*122 ram_1/FE_PHN77_n_213
*123 ram_1/FE_PHN76_n_233
*124 ram_1/FE_PHN75_n_214
*125 ram_1/FE_PHN74_n_234
*126 ram_1/FE_PHN73_n_230
*127 ram_1/FE_PHN72_n_228
*128 ram_1/FE_PHN71_n_232
*129 ram_1/FE_PHN70_n_231
*130 ram_1/FE_PHN69_n_235
*131 ram_1/FE_PHN68_n_229
*132 ram_1/FE_PHN67_n_255
*133 ram_1/FE_PHN66_n_176
*134 ram_1/FE_PHN65_n_258
*135 ram_1/FE_PHN64_n_170
*136 ram_1/FE_PHN63_n_227
*137 ram_1/FE_PHN62_n_169
*138 ram_1/FE_PHN61_n_257
*139 ram_1/FE_PHN60_n_173
*140 ram_1/FE_PHN59_n_172
*141 ram_1/FE_PHN58_n_174
*142 ram_1/FE_PHN57_n_254
*143 ram_1/FE_PHN56_n_175
*144 ram_1/FE_PHN55_n_253
*145 ram_1/FE_PHN54_n_252
*146 ram_1/FE_PHN53_n_256
*147 ram_1/FE_PHN52_n_171
*148 ram_1/FE_PHN51_n_189
*149 ram_1/FE_PHN50_n_188
*150 ram_1/FE_PHN49_n_192
*151 ram_1/FE_PHN48_n_190
*152 ram_1/FE_PHN47_n_194
*153 ram_1/FE_PHN46_n_193
*154 ram_1/FE_PHN45_n_191
*155 ram_1/FE_PHN44_n_163
*156 ram_1/FE_PHN43_n_160
*157 ram_1/FE_PHN42_n_207
*158 ram_1/FE_PHN41_n_159
*159 ram_1/FE_PHN40_n_158
*160 ram_1/FE_PHN39_n_157
*161 ram_1/FE_PHN38_n_153
*162 ram_1/FE_PHN37_n_200
*163 ram_1/FE_PHN36_n_209
*164 ram_1/FE_PHN35_n_208
*165 ram_1/FE_PHN34_n_210
*166 ram_1/FE_PHN33_n_156
*167 ram_1/FE_PHN32_n_205
*168 ram_1/FE_PHN31_n_155
*169 ram_1/FE_PHN30_n_202
*170 ram_1/FE_PHN29_n_154
*171 ram_1/FE_PHN28_n_206
*172 ram_1/FE_PHN27_n_134
*173 ram_1/FE_PHN26_n_136
*174 ram_1/FE_PHN25_n_179
*175 ram_1/FE_PHN24_n_135
*176 ram_1/FE_PHN23_n_133
*177 ram_1/FE_PHN22_n_177
*178 ram_1/FE_PHN21_n_178
*179 ram_1/FE_PHN20_n_132
*180 ram_1/FE_PHN19_n_280
*181 ram_1/FE_PHN18_n_279
*182 ram_1/FE_PHN17_n_276
*183 ram_1/FE_PHN16_n_281
*184 ram_1/FE_PHN15_n_283
*185 ram_1/FE_PHN14_n_277
*186 ram_1/FE_PHN13_n_278
*187 ram_1/FE_PHN12_n_282
*188 ram_1/mem\[0\][7]
*189 ram_1/mem\[0\][6]
*190 ram_1/mem\[0\][5]
*191 ram_1/mem\[0\][4]
*192 ram_1/mem\[0\][3]
*193 ram_1/mem\[0\][2]
*194 ram_1/mem\[0\][1]
*195 ram_1/mem\[0\][0]
*196 ram_1/mem\[1\][7]
*197 ram_1/mem\[1\][6]
*198 ram_1/mem\[1\][5]
*199 ram_1/mem\[1\][4]
*200 ram_1/mem\[1\][3]
*201 ram_1/mem\[1\][2]
*202 ram_1/mem\[1\][1]
*203 ram_1/mem\[1\][0]
*204 ram_1/mem\[2\][7]
*205 ram_1/mem\[2\][6]
*206 ram_1/mem\[2\][5]
*207 ram_1/mem\[2\][4]
*208 ram_1/mem\[2\][3]
*209 ram_1/mem\[2\][2]
*210 ram_1/mem\[2\][1]
*211 ram_1/mem\[2\][0]
*212 ram_1/mem\[3\][7]
*213 ram_1/mem\[3\][6]
*214 ram_1/mem\[3\][5]
*215 ram_1/mem\[3\][4]
*216 ram_1/mem\[3\][3]
*217 ram_1/mem\[3\][2]
*218 ram_1/mem\[3\][1]
*219 ram_1/mem\[3\][0]
*220 ram_1/mem\[4\][7]
*221 ram_1/mem\[4\][6]
*222 ram_1/mem\[4\][5]
*223 ram_1/mem\[4\][4]
*224 ram_1/mem\[4\][3]
*225 ram_1/mem\[4\][2]
*226 ram_1/mem\[4\][1]
*227 ram_1/mem\[4\][0]
*228 ram_1/mem\[5\][7]
*229 ram_1/mem\[5\][6]
*230 ram_1/mem\[5\][5]
*231 ram_1/mem\[5\][4]
*232 ram_1/mem\[5\][3]
*233 ram_1/mem\[5\][2]
*234 ram_1/mem\[5\][1]
*235 ram_1/mem\[5\][0]
*236 ram_1/mem\[6\][7]
*237 ram_1/mem\[6\][6]
*238 ram_1/mem\[6\][5]
*239 ram_1/mem\[6\][4]
*240 ram_1/mem\[6\][3]
*241 ram_1/mem\[6\][2]
*242 ram_1/mem\[6\][1]
*243 ram_1/mem\[6\][0]
*244 ram_1/mem\[7\][7]
*245 ram_1/mem\[7\][6]
*246 ram_1/mem\[7\][5]
*247 ram_1/mem\[7\][4]
*248 ram_1/mem\[7\][3]
*249 ram_1/mem\[7\][2]
*250 ram_1/mem\[7\][1]
*251 ram_1/mem\[7\][0]
*252 ram_1/mem\[8\][7]
*253 ram_1/mem\[8\][6]
*254 ram_1/mem\[8\][5]
*255 ram_1/mem\[8\][4]
*256 ram_1/mem\[8\][3]
*257 ram_1/mem\[8\][2]
*258 ram_1/mem\[8\][1]
*259 ram_1/mem\[8\][0]
*260 ram_1/mem\[9\][7]
*261 ram_1/mem\[9\][6]
*262 ram_1/mem\[9\][5]
*263 ram_1/mem\[9\][4]
*264 ram_1/mem\[9\][3]
*265 ram_1/mem\[9\][2]
*266 ram_1/mem\[9\][1]
*267 ram_1/mem\[9\][0]
*268 ram_1/mem\[10\][7]
*269 ram_1/mem\[10\][6]
*270 ram_1/mem\[10\][5]
*271 ram_1/mem\[10\][4]
*272 ram_1/mem\[10\][3]
*273 ram_1/mem\[10\][2]
*274 ram_1/mem\[10\][1]
*275 ram_1/mem\[10\][0]
*276 ram_1/mem\[11\][7]
*277 ram_1/mem\[11\][6]
*278 ram_1/mem\[11\][5]
*279 ram_1/mem\[11\][4]
*280 ram_1/mem\[11\][3]
*281 ram_1/mem\[11\][2]
*282 ram_1/mem\[11\][1]
*283 ram_1/mem\[11\][0]
*284 ram_1/mem\[12\][7]
*285 ram_1/mem\[12\][6]
*286 ram_1/mem\[12\][5]
*287 ram_1/mem\[12\][4]
*288 ram_1/mem\[12\][3]
*289 ram_1/mem\[12\][2]
*290 ram_1/mem\[12\][1]
*291 ram_1/mem\[12\][0]
*292 ram_1/mem\[13\][7]
*293 ram_1/mem\[13\][6]
*294 ram_1/mem\[13\][5]
*295 ram_1/mem\[13\][4]
*296 ram_1/mem\[13\][3]
*297 ram_1/mem\[13\][2]
*298 ram_1/mem\[13\][1]
*299 ram_1/mem\[13\][0]
*300 ram_1/mem\[14\][7]
*301 ram_1/mem\[14\][6]
*302 ram_1/mem\[14\][5]
*303 ram_1/mem\[14\][4]
*304 ram_1/mem\[14\][3]
*305 ram_1/mem\[14\][2]
*306 ram_1/mem\[14\][1]
*307 ram_1/mem\[14\][0]
*308 ram_1/mem\[15\][7]
*309 ram_1/mem\[15\][6]
*310 ram_1/mem\[15\][5]
*311 ram_1/mem\[15\][4]
*312 ram_1/mem\[15\][3]
*313 ram_1/mem\[15\][2]
*314 ram_1/mem\[15\][1]
*315 ram_1/mem\[15\][0]
*316 ram_1/n_2
*317 ram_1/n_3
*318 ram_1/n_4
*319 ram_1/n_5
*320 ram_1/n_6
*321 ram_1/n_7
*322 ram_1/n_8
*323 ram_1/n_9
*324 ram_1/n_10
*325 ram_1/n_11
*326 ram_1/n_12
*327 ram_1/n_13
*328 ram_1/n_14
*329 ram_1/n_15
*330 ram_1/n_16
*331 ram_1/n_17
*332 ram_1/n_18
*333 ram_1/n_19
*334 ram_1/n_20
*335 ram_1/n_21
*336 ram_1/n_22
*337 ram_1/n_23
*338 ram_1/n_24
*339 ram_1/n_25
*340 ram_1/n_26
*341 ram_1/n_27
*342 ram_1/n_28
*343 ram_1/n_29
*344 ram_1/n_30
*345 ram_1/n_31
*346 ram_1/n_32
*347 ram_1/n_33
*348 ram_1/n_34
*349 ram_1/n_35
*350 ram_1/n_36
*351 ram_1/n_37
*352 ram_1/n_38
*353 ram_1/n_39
*354 ram_1/n_40
*355 ram_1/n_41
*356 ram_1/n_42
*357 ram_1/n_43
*358 ram_1/n_44
*359 ram_1/n_45
*360 ram_1/n_46
*361 ram_1/n_47
*362 ram_1/n_48
*363 ram_1/n_49
*364 ram_1/n_50
*365 ram_1/n_51
*366 ram_1/n_52
*367 ram_1/n_53
*368 ram_1/n_54
*369 ram_1/n_55
*370 ram_1/n_56
*371 ram_1/n_57
*372 ram_1/n_58
*373 ram_1/n_59
*374 ram_1/n_60
*375 ram_1/n_61
*376 ram_1/n_62
*377 ram_1/n_63
*378 ram_1/n_64
*379 ram_1/n_65
*380 ram_1/n_66
*381 ram_1/n_67
*382 ram_1/n_68
*383 ram_1/n_69
*384 ram_1/n_70
*385 ram_1/n_71
*386 ram_1/n_72
*387 ram_1/n_73
*388 ram_1/n_74
*389 ram_1/n_75
*390 ram_1/n_76
*391 ram_1/n_77
*392 ram_1/n_78
*393 ram_1/n_79
*394 ram_1/n_80
*395 ram_1/n_81
*396 ram_1/n_82
*397 ram_1/n_83
*398 ram_1/n_84
*399 ram_1/n_85
*400 ram_1/n_86
*401 ram_1/n_87
*402 ram_1/n_88
*403 ram_1/n_89
*404 ram_1/n_90
*405 ram_1/n_91
*406 ram_1/n_92
*407 ram_1/n_93
*408 ram_1/n_94
*409 ram_1/n_95
*410 ram_1/n_96
*411 ram_1/n_97
*412 ram_1/n_98
*413 ram_1/n_99
*414 ram_1/n_100
*415 ram_1/n_101
*416 ram_1/n_102
*417 ram_1/n_103
*418 ram_1/n_104
*419 ram_1/n_105
*420 ram_1/n_106
*421 ram_1/n_107
*422 ram_1/n_108
*423 ram_1/n_109
*424 ram_1/n_110
*425 ram_1/n_111
*426 ram_1/n_112
*427 ram_1/n_113
*428 ram_1/n_114
*429 ram_1/n_115
*430 ram_1/n_116
*431 ram_1/n_117
*432 ram_1/n_118
*433 ram_1/n_119
*434 ram_1/n_120
*435 ram_1/n_121
*436 ram_1/n_122
*437 ram_1/n_123
*438 ram_1/n_124
*439 ram_1/n_125
*440 ram_1/n_126
*441 ram_1/n_127
*442 ram_1/n_128
*443 ram_1/n_129
*444 ram_1/n_130
*445 ram_1/n_131
*446 ram_1/n_132
*447 ram_1/n_133
*448 ram_1/n_134
*449 ram_1/n_135
*450 ram_1/n_136
*451 ram_1/n_137
*452 ram_1/n_138
*453 ram_1/n_139
*454 ram_1/n_140
*455 ram_1/n_141
*456 ram_1/n_142
*457 ram_1/n_143
*458 ram_1/n_144
*459 ram_1/n_145
*460 ram_1/n_146
*461 ram_1/n_147
*462 ram_1/n_148
*463 ram_1/n_149
*464 ram_1/n_150
*465 ram_1/n_151
*466 ram_1/n_152
*467 ram_1/n_153
*468 ram_1/n_154
*469 ram_1/n_155
*470 ram_1/n_156
*471 ram_1/n_157
*472 ram_1/n_158
*473 ram_1/n_159
*474 ram_1/n_160
*475 ram_1/n_161
*476 ram_1/n_162
*477 ram_1/n_163
*478 ram_1/n_164
*479 ram_1/n_165
*480 ram_1/n_166
*481 ram_1/n_167
*482 ram_1/n_168
*483 ram_1/n_169
*484 ram_1/n_170
*485 ram_1/n_171
*486 ram_1/n_172
*487 ram_1/n_173
*488 ram_1/n_174
*489 ram_1/n_175
*490 ram_1/n_176
*491 ram_1/n_177
*492 ram_1/n_178
*493 ram_1/n_179
*494 ram_1/n_180
*495 ram_1/n_181
*496 ram_1/n_182
*497 ram_1/n_183
*498 ram_1/n_184
*499 ram_1/n_185
*500 ram_1/n_186
*501 ram_1/n_187
*502 ram_1/n_188
*503 ram_1/n_189
*504 ram_1/n_190
*505 ram_1/n_191
*506 ram_1/n_192
*507 ram_1/n_193
*508 ram_1/n_194
*509 ram_1/n_195
*510 ram_1/n_196
*511 ram_1/n_197
*512 ram_1/n_198
*513 ram_1/n_199
*514 ram_1/n_200
*515 ram_1/n_201
*516 ram_1/n_202
*517 ram_1/n_203
*518 ram_1/n_204
*519 ram_1/n_205
*520 ram_1/n_206
*521 ram_1/n_207
*522 ram_1/n_208
*523 ram_1/n_209
*524 ram_1/n_210
*525 ram_1/n_211
*526 ram_1/n_212
*527 ram_1/n_213
*528 ram_1/n_214
*529 ram_1/n_215
*530 ram_1/n_216
*531 ram_1/n_217
*532 ram_1/n_218
*533 ram_1/n_219
*534 ram_1/n_220
*535 ram_1/n_221
*536 ram_1/n_222
*537 ram_1/n_223
*538 ram_1/n_224
*539 ram_1/n_225
*540 ram_1/n_226
*541 ram_1/n_227
*542 ram_1/n_228
*543 ram_1/n_229
*544 ram_1/n_230
*545 ram_1/n_231
*546 ram_1/n_232
*547 ram_1/n_233
*548 ram_1/n_234
*549 ram_1/n_235
*550 ram_1/n_236
*551 ram_1/n_237
*552 ram_1/n_238
*553 ram_1/n_239
*554 ram_1/n_240
*555 ram_1/n_241
*556 ram_1/n_242
*557 ram_1/n_243
*558 ram_1/n_244
*559 ram_1/n_245
*560 ram_1/n_246
*561 ram_1/n_247
*562 ram_1/n_248
*563 ram_1/n_249
*564 ram_1/n_250
*565 ram_1/n_251
*566 ram_1/n_252
*567 ram_1/n_253
*568 ram_1/n_254
*569 ram_1/n_255
*570 ram_1/n_256
*571 ram_1/n_257
*572 ram_1/n_258
*573 ram_1/n_259
*574 ram_1/n_260
*575 ram_1/n_261
*576 ram_1/n_262
*577 ram_1/n_263
*578 ram_1/n_264
*579 ram_1/n_265
*580 ram_1/n_266
*581 ram_1/n_267
*582 ram_1/n_268
*583 ram_1/n_269
*584 ram_1/n_270
*585 ram_1/n_271
*586 ram_1/n_272
*587 ram_1/n_273
*588 ram_1/n_274
*589 ram_1/n_275
*590 ram_1/n_276
*591 ram_1/n_277
*592 ram_1/n_278
*593 ram_1/n_279
*594 ram_1/n_280
*595 ram_1/n_281
*596 ram_1/n_282
*597 ram_1/n_283
*598 FE_PHC11_cs
*599 FE_PHC10_we
*600 FE_OFC0_dataOut_0
*601 FE_OFC9_we
*602 FE_OFC8_we
*603 FE_OFC6_dataOut_1
*604 FE_OFC5_dataOut_2
*605 FE_OFC4_dataOut_3
*606 FE_OFC3_dataOut_4
*607 FE_OFC2_dataOut_5
*608 FE_OFC1_dataOut_6
*609 FE_OFC0_dataOut_7
*610 ram_1/FE_PHC147_n_198
*611 ram_1/FE_PHC146_n_204
*612 ram_1/FE_PHC145_n_197
*613 ram_1/FE_PHC144_n_211
*614 ram_1/FE_PHC143_n_196
*615 ram_1/FE_PHC142_n_201
*616 ram_1/FE_PHC141_n_199
*617 ram_1/FE_PHC140_n_203
*618 ram_1/FE_PHC139_n_248
*619 ram_1/FE_PHC138_n_247
*620 ram_1/FE_PHC137_n_143
*621 ram_1/FE_PHC136_n_249
*622 ram_1/FE_PHC135_n_140
*623 ram_1/FE_PHC134_n_186
*624 ram_1/FE_PHC133_n_180
*625 ram_1/FE_PHC132_n_183
*626 ram_1/FE_PHC131_n_144
*627 ram_1/FE_PHC130_n_244
*628 ram_1/FE_PHC129_n_187
*629 ram_1/FE_PHC128_n_250
*630 ram_1/FE_PHC127_n_184
*631 ram_1/FE_PHC126_n_151
*632 ram_1/FE_PHC125_n_142
*633 ram_1/FE_PHC124_n_138
*634 ram_1/FE_PHC123_n_251
*635 ram_1/FE_PHC122_n_185
*636 ram_1/FE_PHC121_n_245
*637 ram_1/FE_PHC120_n_141
*638 ram_1/FE_PHC119_n_139
*639 ram_1/FE_PHC118_n_137
*640 ram_1/FE_PHC117_n_148
*641 ram_1/FE_PHC116_n_246
*642 ram_1/FE_PHC115_n_182
*643 ram_1/FE_PHC114_n_152
*644 ram_1/FE_PHC113_n_181
*645 ram_1/FE_PHC112_n_147
*646 ram_1/FE_PHC111_n_146
*647 ram_1/FE_PHC110_n_145
*648 ram_1/FE_PHC109_n_150
*649 ram_1/FE_PHC108_n_149
*650 ram_1/FE_PHC107_n_220
*651 ram_1/FE_PHC106_n_225
*652 ram_1/FE_PHC105_n_221
*653 ram_1/FE_PHC104_n_224
*654 ram_1/FE_PHC103_n_222
*655 ram_1/FE_PHC102_n_259
*656 ram_1/FE_PHC101_n_226
*657 ram_1/FE_PHC100_n_223
*658 ram_1/FE_PHC99_n_239
*659 ram_1/FE_PHC98_n_240
*660 ram_1/FE_PHC97_n_237
*661 ram_1/FE_PHC96_n_243
*662 ram_1/FE_PHC95_n_242
*663 ram_1/FE_PHC94_n_241
*664 ram_1/FE_PHC93_n_236
*665 ram_1/FE_PHC92_n_167
*666 ram_1/FE_PHC91_n_238
*667 ram_1/FE_PHC90_n_165
*668 ram_1/FE_PHC89_n_168
*669 ram_1/FE_PHC88_n_162
*670 ram_1/FE_PHC87_n_195
*671 ram_1/FE_PHC86_n_166
*672 ram_1/FE_PHC85_n_164
*673 ram_1/FE_PHC84_n_161
*674 ram_1/FE_PHC83_n_218
*675 ram_1/FE_PHC82_n_219
*676 ram_1/FE_PHC81_n_217
*677 ram_1/FE_PHC80_n_216
*678 ram_1/FE_PHC79_n_212
*679 ram_1/FE_PHC78_n_215
*680 ram_1/FE_PHC77_n_213
*681 ram_1/FE_PHC76_n_233
*682 ram_1/FE_PHC75_n_214
*683 ram_1/FE_PHC74_n_234
*684 ram_1/FE_PHC73_n_230
*685 ram_1/FE_PHC72_n_228
*686 ram_1/FE_PHC71_n_232
*687 ram_1/FE_PHC70_n_231
*688 ram_1/FE_PHC69_n_235
*689 ram_1/FE_PHC68_n_229
*690 ram_1/FE_PHC67_n_255
*691 ram_1/FE_PHC66_n_176
*692 ram_1/FE_PHC65_n_258
*693 ram_1/FE_PHC64_n_170
*694 ram_1/FE_PHC63_n_227
*695 ram_1/FE_PHC62_n_169
*696 ram_1/FE_PHC61_n_257
*697 ram_1/FE_PHC60_n_173
*698 ram_1/FE_PHC59_n_172
*699 ram_1/FE_PHC58_n_174
*700 ram_1/FE_PHC57_n_254
*701 ram_1/FE_PHC56_n_175
*702 ram_1/FE_PHC55_n_253
*703 ram_1/FE_PHC54_n_252
*704 ram_1/FE_PHC53_n_256
*705 ram_1/FE_PHC52_n_171
*706 ram_1/FE_PHC51_n_189
*707 ram_1/FE_PHC50_n_188
*708 ram_1/FE_PHC49_n_192
*709 ram_1/FE_PHC48_n_190
*710 ram_1/FE_PHC47_n_194
*711 ram_1/FE_PHC46_n_193
*712 ram_1/FE_PHC45_n_191
*713 ram_1/FE_PHC44_n_163
*714 ram_1/FE_PHC43_n_160
*715 ram_1/FE_PHC42_n_207
*716 ram_1/FE_PHC41_n_159
*717 ram_1/FE_PHC40_n_158
*718 ram_1/FE_PHC39_n_157
*719 ram_1/FE_PHC38_n_153
*720 ram_1/FE_PHC37_n_200
*721 ram_1/FE_PHC36_n_209
*722 ram_1/FE_PHC35_n_208
*723 ram_1/FE_PHC34_n_210
*724 ram_1/FE_PHC33_n_156
*725 ram_1/FE_PHC32_n_205
*726 ram_1/FE_PHC31_n_155
*727 ram_1/FE_PHC30_n_202
*728 ram_1/FE_PHC29_n_154
*729 ram_1/FE_PHC28_n_206
*730 ram_1/FE_PHC27_n_134
*731 ram_1/FE_PHC26_n_136
*732 ram_1/FE_PHC25_n_179
*733 ram_1/FE_PHC24_n_135
*734 ram_1/FE_PHC23_n_133
*735 ram_1/FE_PHC22_n_177
*736 ram_1/FE_PHC21_n_178
*737 ram_1/FE_PHC20_n_132
*738 ram_1/FE_PHC19_n_280
*739 ram_1/FE_PHC18_n_279
*740 ram_1/FE_PHC17_n_276
*741 ram_1/FE_PHC16_n_281
*742 ram_1/FE_PHC15_n_283
*743 ram_1/FE_PHC14_n_277
*744 ram_1/FE_PHC13_n_278
*745 ram_1/FE_PHC12_n_282
*746 ram_1/dataOut_reg\[0\]
*747 ram_1/dataOut_reg\[1\]
*748 ram_1/dataOut_reg\[2\]
*749 ram_1/dataOut_reg\[3\]
*750 ram_1/dataOut_reg\[4\]
*751 ram_1/dataOut_reg\[5\]
*752 ram_1/dataOut_reg\[6\]
*753 ram_1/dataOut_reg\[7\]
*754 ram_1/mem_reg\[0\]\[0\]
*755 ram_1/mem_reg\[0\]\[1\]
*756 ram_1/mem_reg\[0\]\[2\]
*757 ram_1/mem_reg\[0\]\[3\]
*758 ram_1/mem_reg\[0\]\[4\]
*759 ram_1/mem_reg\[0\]\[5\]
*760 ram_1/mem_reg\[0\]\[6\]
*761 ram_1/mem_reg\[0\]\[7\]
*762 ram_1/mem_reg\[1\]\[0\]
*763 ram_1/mem_reg\[1\]\[1\]
*764 ram_1/mem_reg\[1\]\[2\]
*765 ram_1/mem_reg\[1\]\[3\]
*766 ram_1/mem_reg\[1\]\[4\]
*767 ram_1/mem_reg\[1\]\[5\]
*768 ram_1/mem_reg\[1\]\[6\]
*769 ram_1/mem_reg\[1\]\[7\]
*770 ram_1/mem_reg\[2\]\[0\]
*771 ram_1/mem_reg\[2\]\[1\]
*772 ram_1/mem_reg\[2\]\[2\]
*773 ram_1/mem_reg\[2\]\[3\]
*774 ram_1/mem_reg\[2\]\[4\]
*775 ram_1/mem_reg\[2\]\[5\]
*776 ram_1/mem_reg\[2\]\[6\]
*777 ram_1/mem_reg\[2\]\[7\]
*778 ram_1/mem_reg\[3\]\[0\]
*779 ram_1/mem_reg\[3\]\[1\]
*780 ram_1/mem_reg\[3\]\[2\]
*781 ram_1/mem_reg\[3\]\[3\]
*782 ram_1/mem_reg\[3\]\[4\]
*783 ram_1/mem_reg\[3\]\[5\]
*784 ram_1/mem_reg\[3\]\[6\]
*785 ram_1/mem_reg\[3\]\[7\]
*786 ram_1/mem_reg\[4\]\[0\]
*787 ram_1/mem_reg\[4\]\[1\]
*788 ram_1/mem_reg\[4\]\[2\]
*789 ram_1/mem_reg\[4\]\[3\]
*790 ram_1/mem_reg\[4\]\[4\]
*791 ram_1/mem_reg\[4\]\[5\]
*792 ram_1/mem_reg\[4\]\[6\]
*793 ram_1/mem_reg\[4\]\[7\]
*794 ram_1/mem_reg\[5\]\[0\]
*795 ram_1/mem_reg\[5\]\[1\]
*796 ram_1/mem_reg\[5\]\[2\]
*797 ram_1/mem_reg\[5\]\[3\]
*798 ram_1/mem_reg\[5\]\[4\]
*799 ram_1/mem_reg\[5\]\[5\]
*800 ram_1/mem_reg\[5\]\[6\]
*801 ram_1/mem_reg\[5\]\[7\]
*802 ram_1/mem_reg\[6\]\[0\]
*803 ram_1/mem_reg\[6\]\[1\]
*804 ram_1/mem_reg\[6\]\[2\]
*805 ram_1/mem_reg\[6\]\[3\]
*806 ram_1/mem_reg\[6\]\[4\]
*807 ram_1/mem_reg\[6\]\[5\]
*808 ram_1/mem_reg\[6\]\[6\]
*809 ram_1/mem_reg\[6\]\[7\]
*810 ram_1/mem_reg\[7\]\[0\]
*811 ram_1/mem_reg\[7\]\[1\]
*812 ram_1/mem_reg\[7\]\[2\]
*813 ram_1/mem_reg\[7\]\[3\]
*814 ram_1/mem_reg\[7\]\[4\]
*815 ram_1/mem_reg\[7\]\[5\]
*816 ram_1/mem_reg\[7\]\[6\]
*817 ram_1/mem_reg\[7\]\[7\]
*818 ram_1/mem_reg\[8\]\[0\]
*819 ram_1/mem_reg\[8\]\[1\]
*820 ram_1/mem_reg\[8\]\[2\]
*821 ram_1/mem_reg\[8\]\[3\]
*822 ram_1/mem_reg\[8\]\[4\]
*823 ram_1/mem_reg\[8\]\[5\]
*824 ram_1/mem_reg\[8\]\[6\]
*825 ram_1/mem_reg\[8\]\[7\]
*826 ram_1/mem_reg\[9\]\[0\]
*827 ram_1/mem_reg\[9\]\[1\]
*828 ram_1/mem_reg\[9\]\[2\]
*829 ram_1/mem_reg\[9\]\[3\]
*830 ram_1/mem_reg\[9\]\[4\]
*831 ram_1/mem_reg\[9\]\[5\]
*832 ram_1/mem_reg\[9\]\[6\]
*833 ram_1/mem_reg\[9\]\[7\]
*834 ram_1/mem_reg\[10\]\[0\]
*835 ram_1/mem_reg\[10\]\[1\]
*836 ram_1/mem_reg\[10\]\[2\]
*837 ram_1/mem_reg\[10\]\[3\]
*838 ram_1/mem_reg\[10\]\[4\]
*839 ram_1/mem_reg\[10\]\[5\]
*840 ram_1/mem_reg\[10\]\[6\]
*841 ram_1/mem_reg\[10\]\[7\]
*842 ram_1/mem_reg\[11\]\[0\]
*843 ram_1/mem_reg\[11\]\[1\]
*844 ram_1/mem_reg\[11\]\[2\]
*845 ram_1/mem_reg\[11\]\[3\]
*846 ram_1/mem_reg\[11\]\[4\]
*847 ram_1/mem_reg\[11\]\[5\]
*848 ram_1/mem_reg\[11\]\[6\]
*849 ram_1/mem_reg\[11\]\[7\]
*850 ram_1/mem_reg\[12\]\[0\]
*851 ram_1/mem_reg\[12\]\[1\]
*852 ram_1/mem_reg\[12\]\[2\]
*853 ram_1/mem_reg\[12\]\[3\]
*854 ram_1/mem_reg\[12\]\[4\]
*855 ram_1/mem_reg\[12\]\[5\]
*856 ram_1/mem_reg\[12\]\[6\]
*857 ram_1/mem_reg\[12\]\[7\]
*858 ram_1/mem_reg\[13\]\[0\]
*859 ram_1/mem_reg\[13\]\[1\]
*860 ram_1/mem_reg\[13\]\[2\]
*861 ram_1/mem_reg\[13\]\[3\]
*862 ram_1/mem_reg\[13\]\[4\]
*863 ram_1/mem_reg\[13\]\[5\]
*864 ram_1/mem_reg\[13\]\[6\]
*865 ram_1/mem_reg\[13\]\[7\]
*866 ram_1/mem_reg\[14\]\[0\]
*867 ram_1/mem_reg\[14\]\[1\]
*868 ram_1/mem_reg\[14\]\[2\]
*869 ram_1/mem_reg\[14\]\[3\]
*870 ram_1/mem_reg\[14\]\[4\]
*871 ram_1/mem_reg\[14\]\[5\]
*872 ram_1/mem_reg\[14\]\[6\]
*873 ram_1/mem_reg\[14\]\[7\]
*874 ram_1/mem_reg\[15\]\[0\]
*875 ram_1/mem_reg\[15\]\[1\]
*876 ram_1/mem_reg\[15\]\[2\]
*877 ram_1/mem_reg\[15\]\[3\]
*878 ram_1/mem_reg\[15\]\[4\]
*879 ram_1/mem_reg\[15\]\[5\]
*880 ram_1/mem_reg\[15\]\[6\]
*881 ram_1/mem_reg\[15\]\[7\]
*882 ram_1/g3406__2398
*883 ram_1/g3407__5107
*884 ram_1/g3408__6260
*885 ram_1/g3409__4319
*886 ram_1/g3410__8428
*887 ram_1/g3411__5526
*888 ram_1/g3412__6783
*889 ram_1/g3413__3680
*890 ram_1/g3486__1617
*891 ram_1/g3487__2802
*892 ram_1/g3488__1705
*893 ram_1/g3489__5122
*894 ram_1/g3490__8246
*895 ram_1/g3491__7098
*896 ram_1/g3492__6131
*897 ram_1/g3493__1881
*898 ram_1/g3494__5115
*899 ram_1/g3495__7482
*900 ram_1/g3496__4733
*901 ram_1/g3497__6161
*902 ram_1/g3498__9315
*903 ram_1/g3499__9945
*904 ram_1/g3500__2883
*905 ram_1/g3501__2346
*906 ram_1/g3558__1666
*907 ram_1/g3559__7410
*908 ram_1/g3560__6417
*909 ram_1/g3561__5477
*910 ram_1/g3562__2398
*911 ram_1/g3563__5107
*912 ram_1/g3564__6260
*913 ram_1/g3565__4319
*914 ram_1/g3566__8428
*915 ram_1/g3567__5526
*916 ram_1/g3568__6783
*917 ram_1/g3569__3680
*918 ram_1/g3570__1617
*919 ram_1/g3571__2802
*920 ram_1/g3572__1705
*921 ram_1/g3573__5122
*922 ram_1/g3574__8246
*923 ram_1/g3575__7098
*924 ram_1/g3576__6131
*925 ram_1/g3577__1881
*926 ram_1/g3578__5115
*927 ram_1/g3579__7482
*928 ram_1/g3580__4733
*929 ram_1/g3581__6161
*930 ram_1/g3582__9315
*931 ram_1/g3583__9945
*932 ram_1/g3584__2883
*933 ram_1/g3585__2346
*934 ram_1/g3586__1666
*935 ram_1/g3587__7410
*936 ram_1/g3588__6417
*937 ram_1/g3589__5477
*938 ram_1/g3590__2398
*939 ram_1/g3591__5107
*940 ram_1/g3592__6260
*941 ram_1/g3593__4319
*942 ram_1/g3594__8428
*943 ram_1/g3595__5526
*944 ram_1/g3596__6783
*945 ram_1/g3597__3680
*946 ram_1/g3598__1617
*947 ram_1/g3599__2802
*948 ram_1/g3600__1705
*949 ram_1/g3601__5122
*950 ram_1/g3602__8246
*951 ram_1/g3603__7098
*952 ram_1/g3604__6131
*953 ram_1/g3605__1881
*954 ram_1/g3606__5115
*955 ram_1/g3607__7482
*956 ram_1/g3608__4733
*957 ram_1/g3609__6161
*958 ram_1/g3610__9315
*959 ram_1/g3611__9945
*960 ram_1/g3612__2883
*961 ram_1/g3613__2346
*962 ram_1/g3614__1666
*963 ram_1/g3615__7410
*964 ram_1/g3616__6417
*965 ram_1/g3617__5477
*966 ram_1/g3618__2398
*967 ram_1/g3619__5107
*968 ram_1/g3620__6260
*969 ram_1/g3621__4319
*970 ram_1/g3622__8428
*971 ram_1/g3623__5526
*972 ram_1/g3624__6783
*973 ram_1/g3625__3680
*974 ram_1/g3626__1617
*975 ram_1/g3627__2802
*976 ram_1/g3628__1705
*977 ram_1/g3629__5122
*978 ram_1/g3630__8246
*979 ram_1/g3631__7098
*980 ram_1/g3632__6131
*981 ram_1/g3633__1881
*982 ram_1/g3634__5115
*983 ram_1/g3635__7482
*984 ram_1/g3636__4733
*985 ram_1/g3637__6161
*986 ram_1/g3638__9315
*987 ram_1/g3639__9945
*988 ram_1/g3640__2883
*989 ram_1/g3641__2346
*990 ram_1/g3642__1666
*991 ram_1/g3643__7410
*992 ram_1/g3644__6417
*993 ram_1/g3645__5477
*994 ram_1/g3646__2398
*995 ram_1/g3647__5107
*996 ram_1/g3648__6260
*997 ram_1/g3649__4319
*998 ram_1/g3650__8428
*999 ram_1/g3651__5526
*1000 ram_1/g3652__6783
*1001 ram_1/g3653__3680
*1002 ram_1/g3654__1617
*1003 ram_1/g3655__2802
*1004 ram_1/g3656__1705
*1005 ram_1/g3657__5122
*1006 ram_1/g3658__8246
*1007 ram_1/g3659__7098
*1008 ram_1/g3660__6131
*1009 ram_1/g3661__1881
*1010 ram_1/g3662__5115
*1011 ram_1/g3663__7482
*1012 ram_1/g3664__4733
*1013 ram_1/g3665__6161
*1014 ram_1/g3666__9315
*1015 ram_1/g3667__9945
*1016 ram_1/g3668__2883
*1017 ram_1/g3669__2346
*1018 ram_1/g3670__1666
*1019 ram_1/g3671__7410
*1020 ram_1/g3672__6417
*1021 ram_1/g3673__5477
*1022 ram_1/g3674__2398
*1023 ram_1/g3675__5107
*1024 ram_1/g3676__6260
*1025 ram_1/g3677__4319
*1026 ram_1/g3678__8428
*1027 ram_1/g3679__5526
*1028 ram_1/g3680__6783
*1029 ram_1/g3681__3680
*1030 ram_1/g3682__1617
*1031 ram_1/g3683__2802
*1032 ram_1/g3684__1705
*1033 ram_1/g3685__5122
*1034 ram_1/g3686__8246
*1035 ram_1/g3687__7098
*1036 ram_1/g3688__6131
*1037 ram_1/g3689__1881
*1038 ram_1/g3690__5115
*1039 ram_1/g3691__7482
*1040 ram_1/g3692__4733
*1041 ram_1/g3693__6161
*1042 ram_1/g3694__9315
*1043 ram_1/g3695__9945
*1044 ram_1/g3696__2883
*1045 ram_1/g3697__2346
*1046 ram_1/g3698__1666
*1047 ram_1/g3699__7410
*1048 ram_1/g3700__6417
*1049 ram_1/g3701__5477
*1050 ram_1/g3702__2398
*1051 ram_1/g3703__5107
*1052 ram_1/g3704__6260
*1053 ram_1/g3705__4319
*1054 ram_1/g3706__8428
*1055 ram_1/g3707__5526
*1056 ram_1/g3708__6783
*1057 ram_1/g3709__3680
*1058 ram_1/g3710__1617
*1059 ram_1/g3711__2802
*1060 ram_1/g3712__1705
*1061 ram_1/g3713__5122
*1062 ram_1/g3714__8246
*1063 ram_1/g3715__7098
*1064 ram_1/g3716__6131
*1065 ram_1/g3717__1881
*1066 ram_1/g3718__5115
*1067 ram_1/g3719__7482
*1068 ram_1/g3720__4733
*1069 ram_1/g3721__6161
*1070 ram_1/g3722__9315
*1071 ram_1/g3723__9945
*1072 ram_1/g3724__2883
*1073 ram_1/g3725__2346
*1074 ram_1/g3726__1666
*1075 ram_1/g3727__7410
*1076 ram_1/g3728__6417
*1077 ram_1/g3729__5477
*1078 ram_1/g3730__2398
*1079 ram_1/g3731__5107
*1080 ram_1/g3732__6260
*1081 ram_1/g3733__4319
*1082 ram_1/g3734__8428
*1083 ram_1/g3735__5526
*1084 ram_1/g3736__6783
*1085 ram_1/g3737__3680
*1086 ram_1/g3738__1617
*1087 ram_1/g3739__2802
*1088 ram_1/g3740__1705
*1089 ram_1/g3741__5122
*1090 ram_1/g3742__8246
*1091 ram_1/g3743__7098
*1092 ram_1/g3744__6131
*1093 ram_1/g3745__1881
*1094 ram_1/g3746__5115
*1095 ram_1/g3747__7482
*1096 ram_1/g3748__4733
*1097 ram_1/g3749__6161
*1098 ram_1/g3750__9315
*1099 ram_1/g3751__9945
*1100 ram_1/g3752__2883
*1101 ram_1/g3753__2346
*1102 ram_1/g3754__1666
*1103 ram_1/g3755__7410
*1104 ram_1/g3756__6417
*1105 ram_1/g3757__5477
*1106 ram_1/g3758__2398
*1107 ram_1/g3759__5107
*1108 ram_1/g3760__6260
*1109 ram_1/g3761__4319
*1110 ram_1/g3762__8428
*1111 ram_1/g3763__5526
*1112 ram_1/g3764__6783
*1113 ram_1/g3765__3680
*1114 ram_1/g3766
*1115 ram_1/g3767
*1116 ram_1/g3768__1617
*1117 ram_1/g3769__2802
*1118 ram_1/g3770__1705
*1119 ram_1/g3771__5122
*1120 ram_1/g3772__8246
*1121 ram_1/g3773__7098
*1122 ram_1/g3774__6131
*1123 ram_1/g3775__1881
*1124 ram_1/g3776__5115
*1125 ram_1/g3777__7482
*1126 ram_1/g3778__4733
*1127 ram_1/g3779__6161
*1128 ram_1/g3780__9315
*1129 ram_1/g3781__9945
*1130 ram_1/g3782__2883
*1131 ram_1/g3783__2346
*1132 ram_1/g3784__1666
*1133 ram_1/g3785__7410
*1134 ram_1/g3786__6417
*1135 ram_1/g3787__5477
*1136 ram_1/g3788
*1137 ram_1/g3789__2398
*1138 ram_1/g3790__5107
*1139 ram_1/g3791__6260
*1140 ram_1/g3792__4319
*1141 ram_1/g3793__8428
*1142 ram_1/g3794
*1143 ram_1/g3795
*1144 ram_1/g3796
*1145 ram_1/g3797__5526
*1146 ram_1/g3798__6783
*1147 ram_1/g3799__3680
*1148 ram_1/g3800__1617
*1149 ram_1/g3801__2802
*1150 ram_1/g3802__1705
*1151 ram_1/g3803__5122
*1152 ram_1/g3804__8246
*1153 ram_1/g3805__7098
*1154 ram_1/g3806__6131
*1155 ram_1/g3807
*1156 ram_1/g3808__1881
*1157 ram_1/g3809__5115
*1158 ram_1/g3810__7482
*1159 ram_1/g3811__4733
*1160 ram_1/g3812__6161
*1161 ram_1/g3813
*1162 ram_1/g3814
*1163 ram_1/g3815
*1164 pc3b01_1
*1165 pc3b01_2
*1166 pc3b01_3
*1167 pc3b01_4
*1168 pc3b01_5
*1169 pc3b01_6
*1170 pc3b01_7
*1171 pc3b01_8
*1172 pc3c01_1
*1173 pc3d01_1
*1174 pc3d01_2
*1175 pc3d01_3
*1176 pc3d01_4
*1177 pc3d01_5
*1178 pc3d01_6
*1179 pc3d01_7
*1180 pvdi_VDD_CORE_1
*1181 pv0i_VSS_CORE_1
*1182 pvda_VDDO_CORE_1
*1183 pv0a_VSSO_CORE_1
*1184 pvdi_VDD_CORE_2
*1185 pv0i_VSS_CORE_2
*1186 pvda_VDDO_CORE_2
*1187 pv0a_VSSO_CORE_2
*1188 pvdi_VDD_CORE_3
*1189 pv0i_VSS_CORE_3
*1190 pvda_VDDO_CORE_3
*1191 pv0a_VSSO_CORE_3
*1192 pvdi_VDD_CORE_4
*1193 pv0i_VSS_CORE_4
*1194 pvda_VDDO_CORE_4
*1195 pv0a_VSSO_CORE_4


*PORTS

*1 I *C 480.87 249.79
*2 I *C 249.79 359.13
*3 I *C 249.79 494.13
*4 I *C 249.79 629.13
*5 I *C 249.79 764.13
*6 B *C 1401.62 749.74
*7 B *C 1401.62 614.74
*8 B *C 1401.62 479.74
*9 B *C 1401.62 344.74
*10 B *C 765.26 1401.62
*11 B *C 630.26 1401.62
*12 B *C 495.26 1401.62
*13 B *C 360.26 1401.62
*14 I *C 615.87 249.79
*15 I *C 750.87 249.79


*D_NET *1 5e-07

*CONN
*P *1 I *C 480.87 249.79 *L 0
*I *1173:PAD I *C 480.87 249.79 *L 3.54 *D pc3d01

*CAP
1 *1 2.5e-07
2 *1173:PAD 2.5e-07

*RES
1 *1173:PAD *1 0.000571429
*END

*D_NET *2 5e-07

*CONN
*P *2 I *C 249.79 359.13 *L 0
*I *1176:PAD I *C 249.79 359.13 *L 3.54 *D pc3d01

*CAP
1 *2 2.5e-07
2 *1176:PAD 2.5e-07

*RES
1 *1176:PAD *2 0.000571429
*END

*D_NET *3 5e-07

*CONN
*P *3 I *C 249.79 494.13 *L 0
*I *1177:PAD I *C 249.79 494.13 *L 3.54 *D pc3d01

*CAP
1 *3 2.5e-07
2 *1177:PAD 2.5e-07

*RES
1 *1177:PAD *3 0.000571429
*END

*D_NET *4 5e-07

*CONN
*P *4 I *C 249.79 629.13 *L 0
*I *1178:PAD I *C 249.79 629.13 *L 3.54 *D pc3d01

*CAP
1 *4 2.5e-07
2 *1178:PAD 2.5e-07

*RES
1 *1178:PAD *4 0.000571429
*END

*D_NET *5 5e-07

*CONN
*P *5 I *C 249.79 764.13 *L 0
*I *1179:PAD I *C 249.79 764.13 *L 3.54 *D pc3d01

*CAP
1 *5 2.5e-07
2 *1179:PAD 2.5e-07

*RES
1 *1179:PAD *5 0.000571429
*END

*D_NET *6 5e-07

*CONN
*P *6 B *C 1401.623 749.74 *L 5
*I *1164:PAD B *C 1401.623 749.74 *L 3.57 *D pc3b01

*CAP
1 *6 2.5e-07
2 *1164:PAD 2.5e-07

*RES
1 *1164:PAD *6 0.000571429
*END

*D_NET *7 5e-07

*CONN
*P *7 B *C 1401.623 614.74 *L 5
*I *1165:PAD B *C 1401.623 614.74 *L 3.57 *D pc3b01

*CAP
1 *7 2.5e-07
2 *1165:PAD 2.5e-07

*RES
1 *1165:PAD *7 0.000571429
*END

*D_NET *8 5e-07

*CONN
*P *8 B *C 1401.623 479.74 *L 5
*I *1166:PAD B *C 1401.623 479.74 *L 3.57 *D pc3b01

*CAP
1 *8 2.5e-07
2 *1166:PAD 2.5e-07

*RES
1 *1166:PAD *8 0.000571429
*END

*D_NET *9 5e-07

*CONN
*P *9 B *C 1401.623 344.74 *L 5
*I *1167:PAD B *C 1401.623 344.74 *L 3.57 *D pc3b01

*CAP
1 *9 2.5e-07
2 *1167:PAD 2.5e-07

*RES
1 *1167:PAD *9 0.000571429
*END

*D_NET *10 5e-07

*CONN
*P *10 B *C 765.26 1401.623 *L 5
*I *1168:PAD B *C 765.26 1401.623 *L 3.57 *D pc3b01

*CAP
1 *10 2.5e-07
2 *1168:PAD 2.5e-07

*RES
1 *1168:PAD *10 0.000571429
*END

*D_NET *11 5e-07

*CONN
*P *11 B *C 630.26 1401.623 *L 5
*I *1169:PAD B *C 630.26 1401.623 *L 3.57 *D pc3b01

*CAP
1 *11 2.5e-07
2 *1169:PAD 2.5e-07

*RES
1 *1169:PAD *11 0.000571429
*END

*D_NET *12 5e-07

*CONN
*P *12 B *C 495.26 1401.623 *L 5
*I *1170:PAD B *C 495.26 1401.623 *L 3.57 *D pc3b01

*CAP
1 *12 2.5e-07
2 *1170:PAD 2.5e-07

*RES
1 *1170:PAD *12 0.000571429
*END

*D_NET *13 5e-07

*CONN
*P *13 B *C 360.26 1401.623 *L 5